RUNSPEC

TITLE
TEST_MODEL /

MULTOUT
MULTOUTS

START
1 JUL 2000
/

METRIC
OIL
GAS
WATER
DISGAS

DIMENS
2 1 6 /

RUNCTRL
WELLEQUATIONS 1 /
WATERZONE 1 /
/
TNAVCTRL
LONGNAMES 1 /
/

GRID

INCLUDE
'INCLUDE/zcorn.inc' /
/

INCLUDE
'INCLUDE/coord.inc' /
/

INCLUDE
'INCLUDE/actnum.inc' /

INCLUDE
'INCLUDE/poro.inc' /


EDIT

PROPS

SOLUTION

INCLUDE
'INCLUDE/pressure.inc' /

SUMMARY

SEPARATE
TCPU

WBHP
	"*"
/
WOPR
	"*"
/
WWPR
	"*"
/
WGPR
	"*"
/
WWIR
	"*"
/

RECU

RATE 1 MONTH WELL EXAC END FIEL GROU CRAT LRAT /

FREQ 0 0 1
/

SCHEDULE

WELSPECS
'0' 1* 1* 1* 1* /
'1' 1* 1* 1* 1* /
'2' 1* 1* 1* 1* /
'3' 1* 1* 1* 1* /
'4' 1* 1* 1* 1* /
'5' 1* 1* 1* 1* /
'6' 1* 1* 1* 1* /
'7' 1* 1* 1* 1* /
'8' 1* 1* 1* 1* /
'9' 1* 1* 1* 1* /
'10' 1* 1* 1* 1* /
'11' 1* 1* 1* 1* /
'12' 1* 1* 1* 1* /
'13' 1* 1* 1* 1* /
'14' 1* 1* 1* 1* /
'15' 1* 1* 1* 1* /
'16' 1* 1* 1* 1* /
'17' 1* 1* 1* 1* /
'18' 1* 1* 1* 1* /
'19' 1* 1* 1* 1* /
'20' 1* 1* 1* 1* /
'21' 1* 1* 1* 1* /
'22' 1* 1* 1* 1* /
'23' 1* 1* 1* 1* /
'24' 1* 1* 1* 1* /
'25' 1* 1* 1* 1* /
'26' 1* 1* 1* 1* /
'27' 1* 1* 1* 1* /
'28' 1* 1* 1* 1* /
/

INCLUDE
'INCLUDE/welltrack.inc' /
